data_frame0
_symmetry_cell_setting triclinic
_symmetry_space_group_name_H-M  'P1'
_symmetry_Int_Tables_number  1
_cell_length_a 55.8414
_cell_length_b 4.96
_cell_length_c 20.0
_cell_angle_alpha 90.0
_cell_angle_beta 90.0
_cell_angle_gamma 90.0
_cell_volume  5539.46688
_cell_formula_units_Z 136
loop_
    _atom_site_label
    _atom_site_fract_x
    _atom_site_fract_y
    _atom_site_fract_z
    _atom_site_type_symbol
    _atom_site_occupancy
Al 0 0 0 Al 1
Al 0.0256404746 0.5 0 Al 1
Al 0.05128274 0 0 Al 1
Al 0.0769232147 0.5 0 Al 1
Al 0.1025636893 0 0 Al 1
Al 0.1282041639 0.5 0 Al 1
Al 0.1538464294 0 0 Al 1
Al 0.179486904 0.5 0 Al 1
Al 0 0.3333266129 0.11691 Al 1
Al 0.0256404746 0.8333266129 0.11691 Al 1
Al 0.05128274 0.3333266129 0.11691 Al 1
Al 0.0769232147 0.8333266129 0.11691 Al 1
Al 0.1025636893 0.3333266129 0.11691 Al 1
Al 0.1282041639 0.8333266129 0.11691 Al 1
Al 0.1538464294 0.3333266129 0.11691 Al 1
Al 0.179486904 0.8333266129 0.11691 Al 1
Al 0 0.6666733871 0.233815 Al 1
Al 0.0256404746 0.1666733871 0.233815 Al 1
Al 0.05128274 0.6666733871 0.233815 Al 1
Al 0.0769232147 0.1666733871 0.233815 Al 1
Al 0.1025636893 0.6666733871 0.233815 Al 1
Al 0.1282041639 0.1666733871 0.233815 Al 1
Al 0.1538464294 0.6666733871 0.233815 Al 1
Al 0.179486904 0.1666733871 0.233815 Al 1
Al 0.001339508 -0.0039112903 0.34673 Al 1
Al 0.0245642122 0.4954435484 0.34922 Al 1
Al 0.0517680431 0.0023185484 0.347625 Al 1
Al 0.076953658 0.505483871 0.34756 Al 1
Al 0.1024150541 0.0055241935 0.347075 Al 1
Al 0.127584552 0.5026008065 0.34781 Al 1
Al 0.1546146766 -0.0043346774 0.3493 Al 1
Al 0.1779665266 0.4948387097 0.347545 Al 1
C 3.40249e-05 -0.0001008065 0.514655 C 1
C 2.86526e-05 0.4999193548 0.51458 C 1
C 0.0128524715 0.25 0.514885 C 1
C 0.0128506807 0.7498185484 0.51486 C 1
C 0.0384660843 0.2500201613 0.514855 C 1
C 0.0384696659 0.7498790323 0.51483 C 1
C 0.0512988571 -6.04839e-05 0.514605 C 1
C 0.0512845308 0.4999798387 0.51468 C 1
C 0.0769411225 6.04839e-05 0.51456 C 1
C 0.0769321686 0.5000201613 0.51439 C 1
C 0.089768523 0.2499193548 0.514495 C 1
C 0.089768523 0.7501612903 0.514465 C 1
C 0.1153982529 0.2499395161 0.51433 C 1
C 0.1153964621 0.7502419355 0.514305 C 1
C 0.1282149087 0.0001612903 0.51438 C 1
C 0.1282328165 0.5001209677 0.514135 C 1
C 0.1538625464 0.0001814516 0.514435 C 1
C 0.1538768727 0.5001612903 0.514515 C 1
C 0.1666827837 0.2502822581 0.514565 C 1
C 0.1666845745 0.7500604839 0.51459 C 1
C 0.1923160952 0.2501612903 0.51441 C 1
C 0.192317886 0.7501209677 0.514525 C 1
C 0.2051291694 8.06452e-05 0.514305 C 1
C 0.2051345418 0.5001814516 0.514335 C 1
C 0.2307750164 8.06452e-05 0.514005 C 1
C 0.2307714348 0.5001008065 0.514055 C 1
C 0.2435916721 0.2501209677 0.513915 C 1
C 0.2435916721 0.7500403226 0.513935 C 1
C 0.2692231928 0.2500403226 0.51392 C 1
C 0.2692231928 0.7500403226 0.513935 C 1
C 0.282036267 4.03226e-05 0.513975 C 1
C 0.2820308946 0.5000403226 0.51399 C 1
C 0.3076767416 2.01613e-05 0.51405 C 1
C 0.3076731601 0.5 0.514065 C 1
C 0.3205023513 0.2500201613 0.51407 C 1
C 0.3205005605 0.75 0.514075 C 1
C 0.3461517799 0.25 0.51407 C 1
C 0.3461517799 0.75 0.51407 C 1
C 0.3589666448 0 0.514065 C 1
C 0.358964854 0.5 0.514065 C 1
C 0.3846071194 0 0.51406 C 1
C 0.3846053287 0.5 0.51406 C 1
C 0.3974237752 0.25 0.51406 C 1
C 0.3974237752 0.75 0.51406 C 1
C 0.4230642498 0.25 0.514065 C 1
C 0.4230642498 0.75 0.514065 C 1
C 0.4358916503 0 0.514065 C 1
C 0.4358916503 0.5 0.514065 C 1
C 0.4615321249 0 0.514065 C 1
C 0.4615303341 0.5 0.514065 C 1
C 0.4743559438 0.25 0.514065 C 1
C 0.4743559438 0.75 0.514065 C 1
C 0.4999964184 0.25 0.514065 C 1
C 0.4999964184 0.75 0.514065 C 1
C 0.5128184465 0 0.514065 C 1
C 0.5128184465 0.5 0.514065 C 1
C 0.5384589212 0 0.514065 C 1
C 0.5384589212 0.5 0.514065 C 1
C 0.5512791585 0.25 0.514065 C 1
C 0.5512791585 0.75 0.514065 C 1
C 0.5769232147 0.25 0.514065 C 1
C 0.5769232147 0.75 0.514065 C 1
C 0.5897416612 0 0.514065 C 1
C 0.5897416612 0.5 0.514065 C 1
C 0.6153857174 0 0.514065 C 1
C 0.6153857174 0.5 0.514065 C 1
C 0.6282023731 0.25 0.514065 C 1
C 0.6282023731 0.75 0.514065 C 1
C 0.6538464294 0.25 0.514065 C 1
C 0.6538464294 0.75 0.514065 C 1
C 0.6666684575 0 0.514065 C 1
C 0.6666666667 0.5 0.514065 C 1
C 0.6923089321 0 0.514065 C 1
C 0.6923089321 0.5 0.514065 C 1
C 0.7051309602 0.25 0.514065 C 1
C 0.7051309602 0.75 0.514065 C 1
C 0.7307732256 0.25 0.514065 C 1
C 0.7307732256 0.75 0.514065 C 1
C 0.7435988353 0 0.514065 C 1
C 0.7435970445 0.5 0.514065 C 1
C 0.7692393099 0 0.514065 C 1
C 0.7692393099 0.5 0.514065 C 1
C 0.782061338 0.25 0.514065 C 1
C 0.782061338 0.75 0.514065 C 1
C 0.8077036034 0.2499798387 0.514065 C 1
C 0.8077036034 0.7500201613 0.514065 C 1
C 0.8205310039 0 0.514065 C 1
C 0.8205274223 0.5 0.514065 C 1
C 0.8461732693 0 0.514065 C 1
C 0.8461714785 0.5 0.514065 C 1
C 0.8589917158 0.2499596774 0.51407 C 1
C 0.8589917158 0.7500201613 0.51407 C 1
C 0.8846393536 0.2499395161 0.514065 C 1
C 0.8846411444 0.7500201613 0.514065 C 1
C 0.8974613817 -2.01613e-05 0.514035 C 1
C 0.8974578001 0.4999798387 0.514015 C 1
C 0.9231054379 -4.03226e-05 0.513895 C 1
C 0.9231108103 0.4999596774 0.513875 C 1
C 0.9359203029 0.2499193548 0.513825 C 1
C 0.9359203029 0.7499798387 0.51383 C 1
C 0.9615625683 0.2499596774 0.51389 C 1
C 0.9615643591 0.7498991935 0.513905 C 1
C 0.9743774332 -8.06452e-05 0.51412 C 1
C 0.9743845964 0.4999193548 0.514015 C 1
